 LISTING FILE: gwt.m3d
                         UNIT  16

 OPENING gwt.btn
 FILE TYPE:BTN   UNIT   1

 OPENING gwt.adv
 FILE TYPE:ADV   UNIT   2

 OPENING gwt.dsp
 FILE TYPE:DSP   UNIT   3

 OPENING gwt.ssm
 FILE TYPE:SSM   UNIT   4

 OPENING gwt.gcg
 FILE TYPE:GCG   UNIT   9

 OPENING gwt.sft
 FILE TYPE:SFT   UNIT  19

 OPENING gwt.lkt
 FILE TYPE:LKT   UNIT  18

 OPENING gwt.ftl
 FILE TYPE:FTL   UNIT  10

 OPENING gwt.lak.out
 FILE TYPE:DATA   UNIT  81

 OPENING gwt.123
 FILE TYPE:DATA   UNIT  82

                              +++++++++++++++++++++++++++++++++++++++++++++++++++++++++++++++++++++++
                              +                                                                     +
                              +                              MT3D-USGS                              +
                              +             A Modular 3D Multi-Species Transport Model              +
                              +    For Simulation of Advection, Dispersion and Chemical Reactions   +
                              +                of Contaminants in Groundwater Systems               +
                              +                                                                     +
                              +++++++++++++++++++++++++++++++++++++++++++++++++++++++++++++++++++++++

  ----- 
 | M T | Conversion from Groundwater Vistas                                              
 | 3 D | MT3D Model                                                                      
  ----- 
 THE TRANSPORT MODEL CONSISTS OF     8 LAYER(S)   36 ROW(S)   23 COLUMN(S)
 NUMBER OF STRESS PERIOD(S) FOR TRANSPORT SIMULATION =    1
 NUMBER OF ALL COMPONENTS INCLUDED IN SIMULATION =    1
 NUMBER OF MOBILE COMPONENTS INCLUDED IN SIMULATION =    1
 UNIT FOR TIME IS D   ;  UNIT FOR LENGTH IS FT  ;  UNIT FOR MASS IS LB  
 OPTIONAL PACKAGES INCLUDED IN CURRENT SIMULATION:
  o ADV   ON UNIT  2
  o DSP   ON UNIT  3
  o SSM   ON UNIT  4
  o GCG   ON UNIT  9
  o LKT   ON UNIT 18
  o SFT   ON UNIT 19


 BTN1 -- BASIC TRANSPORT PACKAGE, VERSION 1, MAY 2016, INPUT READ FROM UNIT  1

 BTN PACKAGE KEYWORD INPUT: 
 DRYCELL OPTION NOT SET
  FTL FLOW TERMS WILL BE ECHOED TO OUT FILE
  DRY CELL BUDGET OMITTED FROM GLAOBAL MASS BALANCE SUMMARY

 LAYER NUMBER  AQUIFER TYPE
 ------------  ------------
       1            1
       2            1
       3            1
       4            1
       5            1
       6            1
       7            1
       8            1

 WIDTH ALONG ROWS (DELR)  =   405.665    

 WIDTH ALONG COLS (DELC)  =   403.717    

 TOP ELEV. OF 1ST LAYER   =   100.000    



           CELL THICKNESS (DZ)      FOR LAYER   1
 READING ON UNIT    1 WITH FORMAT: (1F12.6)            

 CELL THICKNESS (DZ)      =   15.0000     FOR LAYER   2

 CELL THICKNESS (DZ)      =   15.0000     FOR LAYER   3

 CELL THICKNESS (DZ)      =   15.0000     FOR LAYER   4

 CELL THICKNESS (DZ)      =   15.0000     FOR LAYER   5

 CELL THICKNESS (DZ)      =   15.0000     FOR LAYER   6

 CELL THICKNESS (DZ)      =   15.0000     FOR LAYER   7

 CELL THICKNESS (DZ)      =   15.0000     FOR LAYER   8

 POROSITY                 =  0.300000     FOR LAYER   1

 POROSITY                 =  0.300000     FOR LAYER   2

 POROSITY                 =  0.300000     FOR LAYER   3

 POROSITY                 =  0.300000     FOR LAYER   4

 POROSITY                 =  0.300000     FOR LAYER   5

 POROSITY                 =  0.300000     FOR LAYER   6

 POROSITY                 =  0.300000     FOR LAYER   7

 POROSITY                 =  0.300000     FOR LAYER   8

 CONCN. BOUNDARY ARRAY    =              1 FOR LAYER   1

 CONCN. BOUNDARY ARRAY    =              1 FOR LAYER   2

 CONCN. BOUNDARY ARRAY    =              1 FOR LAYER   3

 CONCN. BOUNDARY ARRAY    =              1 FOR LAYER   4

 CONCN. BOUNDARY ARRAY    =              1 FOR LAYER   5

 CONCN. BOUNDARY ARRAY    =              1 FOR LAYER   6

 CONCN. BOUNDARY ARRAY    =              1 FOR LAYER   7

 CONCN. BOUNDARY ARRAY    =              1 FOR LAYER   8

 INITIAL CONC.: COMP.  01 =   0.00000     FOR LAYER   1

 INITIAL CONC.: COMP.  01 =   0.00000     FOR LAYER   2

 INITIAL CONC.: COMP.  01 =   0.00000     FOR LAYER   3

 INITIAL CONC.: COMP.  01 =   0.00000     FOR LAYER   4

 INITIAL CONC.: COMP.  01 =   0.00000     FOR LAYER   5

 INITIAL CONC.: COMP.  01 =   0.00000     FOR LAYER   6

 INITIAL CONC.: COMP.  01 =   0.00000     FOR LAYER   7

 INITIAL CONC.: COMP.  01 =   0.00000     FOR LAYER   8

 VALUE INDICATING INACTIVE CONCENTRATION CELLS =   -1.000000    
 MINIMUM SATURATED THICKNESS [THKMIN] ALLOWED =  0.0010000 OF TOTAL CELL THICKNESS


 OUTPUT CONTROL OPTIONS
 ----------------------

 DO NOT PRINT CELL CONCENTRATION
 DO NOT PRINT PARTICLE NUMBER IN EACH CELL
 DO NOT PRINT RETARDATION FACTOR
 DO NOT PRINT DISPERSION COEFFICIENT
 SAVE DISSOLVED PHASE CONCENTRATIONS IN UNFORMATTED FILES [MT3Dnnn.UCN]
  FOR EACH SPECIES ON UNITS 201 AND ABOVE

 NUMBER OF TIMES AT WHICH SIMULATION RESULTS ARE SAVED =   11
 TOTAL ELAPSED TIMES AT WHICH SIMULATION RESULTS ARE SAVED: 
    100.00       1000.0       2000.0       3000.0       4000.0       5000.0       6000.0       7000.0    
    8000.0       9000.0       9131.0    

 NUMBER OF OBSERVATION POINTS =    0

 SAVE ONE-LINE SUMMARY OF MASS BUDGETS IN FILES [MT3Dnnn.MAS]
  FOR EACH SPECIES ON UNITS 601 AND ABOVE, EVERY 10 TRANSPORT STEPS

 MAXIMUM LENGTH ALONG THE X (J) AXIS =   9330.295    
 MAXIMUM LENGTH ALONG THE Y (I) AXIS =   14533.81    
 MAXIMUM LENGTH ALONG THE Z (K) AXIS =   191.9925    
 FMI1 -- FLOW MODEL INTERFACE PACKAGE, VERSION 1, MAY 2016, INPUT READ FROM UNIT 10
 FLOW MODEL IS STEADY-STATE
 FLOW MODEL CONTAINS CONSTANT-HEAD CELLS


 ADV1 -- ADVECTION PACKAGE, VERSION 1, MAY 2016, INPUT READ FROM UNIT  2
 ADVECTION IS SOLVED WITH THE UPSTREAM FINITE DIFFERENCE SCHEME
 COURANT NUMBER ALLOWED IN SOLVING THE ADVECTION TERM =  1.00    


 ADVECTION SOLUTION OPTIONS
 --------------------------

 ADVECTION IS SOLVED WITH THE UPSTREAM FINITE DIFFERENCE SCHEME
 COURANT NUMBER ALLOWED IN SOLVING THE ADVECTION TERM =  1.00    

 DSP1 -- DISPERSION PACKAGE, VERSION 1, MAY 2016, INPUT READ FROM UNIT  3


 DISPERSION INPUT PARAMETERS
 ---------------------------


 LONG. DISPERSIVITY (AL)  =   20.0000     FOR LAYER   1

 LONG. DISPERSIVITY (AL)  =   20.0000     FOR LAYER   2

 LONG. DISPERSIVITY (AL)  =   20.0000     FOR LAYER   3

 LONG. DISPERSIVITY (AL)  =   20.0000     FOR LAYER   4

 LONG. DISPERSIVITY (AL)  =   20.0000     FOR LAYER   5

 LONG. DISPERSIVITY (AL)  =   20.0000     FOR LAYER   6

 LONG. DISPERSIVITY (AL)  =   20.0000     FOR LAYER   7

 LONG. DISPERSIVITY (AL)  =   20.0000     FOR LAYER   8

 H. TRANS./LONG. DISP.    =  0.100000    

 V. TRANS./LONG. DISP.    =  1.000000E-02

 DIFFUSION COEFFICIENT    =   0.00000    

 SSM1 -- SINK & SOURCE MIXING PACKAGE, VERSION 1, MAY 2016, INPUT READ FROM UNIT  4
 HEADER LINE OF THE SSM PACKAGE INPUT FILE:
  F F F F F F                                                            
 MAJOR STRESS COMPONENTS PRESENT IN THE FLOW MODEL:
  o RECHARGE [RCH]
 MAXIMUM NUMBER OF POINT SINKS/SOURCES =     600

 GCG1 -- GENERALIZED CONJUGATE GRADIENT SOLVER PACKAGE, VERSION 1, OCTOBER 2010 INPUT READ FROM UNIT  9
 MAXIMUM OF   10 OUTER ITERATIONS
        AND   50 INNER ITERATIONS ALLOWED FOR CLOSURE
 THE PRECONDITIONING TYPE SELECTED IS MODIFIED INCOMPLETE CHOLESKY (MIC).
 DISPERSION CROSS TERMS LUMPED INTO RIGHT-HAND-SIDE



                                               SOLUTION BY THE GENERALIZED CONJUGATE GRADIENT METHOD
                                               -----------------------------------------------------
                                     MAXIMUM OUTER ITERATIONS ALLOWED FOR CLOSURE =       10
                                     MAXIMUM INNER ITERATIONS ALLOWED FOR CLOSURE =       50
                                                    PRECONDITIONING TYPE SELECTED =    3
                                                           ACCELERATION PARAMETER =     1.0000    
                                       CONCENTRATION CHANGE CRITERION FOR CLOSURE =    0.10000E-05
                                       GCG CONCENTRATION CHANGE PRINTOUT INTERVAL =        5

 LKT1 -- LAKE TRANSPORT PACKAGE, VERSION 1, MAY 2016, INPUT READ FROM UNIT 18
 NUMBER OF LAKES =     2
 MAXIMUM NUMBER OF LAKE BOUNDARY CONDITIONS =   100
 LAKE-BY-LAKE INFORMATION WILL BE PRINTED ON UNIT    81
 MASS DOES NOT EXIT VIA LAKE ET

 SFT1 -- STREAM TRANSPORT PACKAGE, VERSION 1, MAY 2016, INPUT READ FROM UNIT 19
 NUMBER OF STREAMS =    38
 MAXIMUM NUMBER OF STREAM BOUNDARY CONDITIONS =     2
 RCH-BY-RCH INFORMATION WILL BE PRINTED ON UNIT    81
 STREAM-FLOW OBSERVATION OUTPUT  WILL BE SAVED IN UNIT: 82
 STEADY-STATE SFR FLOW SOLUTION IS USED; MASS WILL BE GAINED/LOST
 MASS DOES NOT EXIT VIA STREAM ET


 LAKE INPUT PARAMETERS
 ---------------------




           LAKE INIT CONC COMP# 001
 READING ON UNIT   18 WITH FORMAT: (10E12.4)           

           1          2
 ......................
   1    0.00       0.00    


 STREAM INPUT PARAMETERS
 -----------------------

 STREAM SOLVER OPTION =     1
   1 = FINITE DIFFERENCE FORMULATION
 STREAM SOLVER TIME WEIGHTING FACTOR =  0.50000    
   0.0 = EXPLICIT SCHEME IS USED
   0.5 = CRANK-NICOLSON SCHEME IS USED
   1.0 = FULLY IMPLICIT SCHEME IS USED
 STREAM SOLVER SPACE WEIGHTING FACTOR =   1.0000    
   0.0 = CENTRAL-IN-SPACE WEIGHTING
   1.0 = UPSTREAM WEIGHTING
 CLOSURE CRITERION FOR SFT SOLVER =  0.10000E-02
 MAXIMUM NUMBER OF SFR ITERATIONS =    10
 COURANT CONSTRAINT FOR SFR TIME-STEP =   2.0000    
 PRINT OPTION FOR xMD SOLVER =            0



           STRM INIT CONC COMP# 001
 READING ON UNIT   19 WITH FORMAT: (10E12.4)           

           1          2          3          4          5          6          7          8          9         10         11
          12         13         14         15         16         17         18         19         20         21         22
          23         24         25         26         27         28         29         30         31         32         33
          34         35         36         37         38
 .........................................................................................................................
   1    0.00       0.00       0.00       0.00       0.00       0.00       0.00       0.00       0.00       0.00       0.00    
        0.00       0.00       0.00       0.00       0.00       0.00       0.00       0.00       0.00       0.00       0.00    
        0.00       0.00       0.00       0.00       0.00       0.00       0.00       0.00       0.00       0.00       0.00    
        0.00       0.00       0.00       0.00       0.00    



           DISP COEF L2/T COMP# 001
 READING ON UNIT   19 WITH FORMAT: (10E12.4)           

           1          2          3          4          5          6          7          8          9         10         11
          12         13         14         15         16         17         18         19         20         21         22
          23         24         25         26         27         28         29         30         31         32         33
          34         35         36         37         38
 .........................................................................................................................
   1    0.00       0.00       0.00       0.00       0.00       0.00       0.00       0.00       0.00       0.00       0.00    
        0.00       0.00       0.00       0.00       0.00       0.00       0.00       0.00       0.00       0.00       0.00    
        0.00       0.00       0.00       0.00       0.00       0.00       0.00       0.00       0.00       0.00       0.00    
        0.00       0.00       0.00       0.00       0.00    


                                   ++++++++++++++++++++++++++++++++++++++++++++++++++++++++++++++
                                                       STRESS PERIOD NO.  001
                                   ++++++++++++++++++++++++++++++++++++++++++++++++++++++++++++++


 LENGTH OF CURRENT STRESS PERIOD =   9131.000    
 NUMBER OF TIME STEPS FOR CURRENT STRESS PERIOD =    1
 TIME STEP MULTIPLIER USED IN FLOW SOLUTION =   1.000000    

 ***Type of Transport Simulation is TRANSIENT

 USER-SPECIFIED TRANSPORT STEPSIZE =   7.450000    D   
 MAXIMUM NUMBER OF TRANSPORT STEPS ALLOWED  IN ONE FLOW TIME STEP =    300000
 MULTIPLIER FOR SUCCESSIVE TRANSPORT STEPS  [USED IN IMPLICIT SCHEMES] =     1.000
 MAXIMUM TRANSPORT STEP SIZE  [USED IN IMPLICIT SCHEMES] =   10.00000    D   

 CONCENTRATION OF RECHARGE FLUXES WILL BE READ IN STRESS PERIOD  1

 RECH. CONC. COMP.  01    =   0.00000    

       NO    LAYER   ROW   COLUMN   CONCENTRATION       TYPE            COMPONENT
       1       1       1      12       500.0000         CONSTANT HEAD       1
       2       1       1      13       500.0000         CONSTANT HEAD       1
       3       1       1      14       500.0000         CONSTANT HEAD       1
       4       1       1      15       500.0000         CONSTANT HEAD       1
       5       2       1      12       500.0000         CONSTANT HEAD       1
       6       2       1      13       500.0000         CONSTANT HEAD       1
       7       2       1      14       500.0000         CONSTANT HEAD       1
       8       2       1      15       500.0000         CONSTANT HEAD       1


 LAKE BOUNDARY CONDITIONS
 ------------------------



 STREAM BOUNDARY CONDITIONS
 --------------------------


 NO. OF STREAM SINKS/SOURCES OF SPECIFIED CONCONCENTRATIONS =    2 IN STRESS PERIOD  1

      SFTN    BC-TYPE       CONC(1,NCOMP)
         1     PRECIP       0.000000    
         3     PRECIP       0.000000    


                                          ================================================
                                                         TIME STEP NO.  001
                                          ================================================

 FROM TIME =   0.0000     TO    9131.0    


                    "THKSAT          " FLOW TERMS FOR TIME STEP  1, STRESS PERIOD  1 READ UNFORMATTED ON UNIT 10
                    --------------------------------------------------------------------------------------------

                                                             LAYER   1

           1          2          3          4          5          6          7          8          9         10         11
          12         13         14         15         16         17         18         19         20         21         22
          23
 .........................................................................................................................
   1   1.000E+30  1.000E+30  1.000E+30   15.1       15.0       15.2       15.1       15.0       15.2       15.3       15.0    
        15.2       15.6       15.6       15.3       15.0       15.4       15.6       15.1       15.3       15.3       14.0    
        14.2    
   2   1.000E+30  1.000E+30   15.0       14.8       14.8       14.9       14.9       14.8       15.0       15.0       14.8    
        14.9       15.2       15.4       15.1       14.8       15.1       15.1       14.6       14.7       14.5       13.8    
        14.3    
   3   1.000E+30  1.000E+30   15.3       15.1       15.0       14.9       14.8       14.8       15.0       15.0       15.0    
        15.0       15.0       15.2       15.1       15.1       15.0       14.9       14.8       14.7       14.5       14.8    
        15.1    
   4   1.000E+30  1.000E+30   16.0       15.5       15.4       15.1       15.0       15.1       15.1       15.2       15.2    
        15.2       15.2       15.2       15.4       15.3       15.3       15.2       15.1       14.9       15.5       15.9    
        16.2    
   5   1.000E+30  1.000E+30   16.8       16.4       15.9       15.4       15.3       15.3       15.4       15.5       15.5    
        15.4       15.6       15.6       15.6       15.5       15.6       15.5       15.3       15.5       16.1       16.3    
        16.7    
   6   1.000E+30  1.000E+30   17.2       16.7       16.4       16.1       15.7       15.6       15.8       15.9       15.9    
        15.7       15.8       15.7       15.8       15.7       15.6       15.3      1.000E+30  1.000E+30   15.9       16.1    
        16.2    
   7   1.000E+30  1.000E+30   17.3       17.2       16.7       16.3       16.1       15.8       16.1       16.5       16.4    
        16.1       15.8       15.9       15.7       15.7       15.5      1.000E+30  1.000E+30  1.000E+30   15.7       15.8    
        15.8    
   8   1.000E+30  1.000E+30   16.9       16.9       16.8       16.4       16.0       16.1       16.3       16.7       16.6    
        16.3       15.9       15.9       15.5      1.000E+30  1.000E+30  1.000E+30  1.000E+30  1.000E+30   15.5       15.7    
        15.8    
   9   1.000E+30  1.000E+30   16.4       16.4       16.5       16.4       16.0       15.8       16.0       16.4       16.3    
        16.0       15.8       15.8       15.6      1.000E+30  1.000E+30  1.000E+30  1.000E+30  1.000E+30  1.000E+30   15.5    
        15.6    
  10   1.000E+30  1.000E+30   16.4       16.3       16.4       16.5       15.9       15.8       15.7       15.7       15.8    
        15.8       15.7       15.7       15.5      1.000E+30  1.000E+30  1.000E+30  1.000E+30  1.000E+30  1.000E+30   15.4    
        15.4    
  11   1.000E+30  1.000E+30   17.2       16.8       17.0       16.5       16.4       15.6       15.2       15.4       15.2    
        15.3       15.5       15.4       15.4       15.3      1.000E+30  1.000E+30  1.000E+30  1.000E+30  1.000E+30   15.3    
        15.3    
  12   1.000E+30   18.5       18.7       17.9       17.5       17.4       17.3       16.8       16.0       15.6       15.0    
        15.1       15.1       15.1       15.2       15.2      1.000E+30  1.000E+30  1.000E+30  1.000E+30  1.000E+30   15.2    
        15.2    
  13   1.000E+30   20.1       20.0       19.9       19.8       19.5       19.0       17.8       16.9       16.1       14.5    
        14.6       14.7       14.8       14.9       15.1      1.000E+30  1.000E+30  1.000E+30  1.000E+30   15.1       15.1    
        15.0    
  14   1.000E+30   20.6       20.5       20.4       20.3       20.1       19.4       18.6       17.7       16.7       15.2    
        14.1       14.3       14.4       14.6       14.9      1.000E+30  1.000E+30  1.000E+30  1.000E+30   15.0       14.9    
        14.8    
  15   1.000E+30   21.0       20.6       20.5       20.4       20.3       20.2       19.5       18.5       17.6       16.5    
        14.9       14.3       14.0       14.3       14.6      1.000E+30  1.000E+30  1.000E+30   14.9       14.7       14.6    
        14.5    
  16   1.000E+30   20.6       20.6       20.7       20.3       20.3       20.2       20.1       19.4       18.4       17.2    
        15.4       14.7       14.6       14.3       14.2       14.6      1.000E+30   14.7       14.5       14.3       14.2    
        14.1    
  17   1.000E+30   19.9       20.0       20.2       20.3       20.5       20.5       20.6       19.9       19.1       18.7    
        15.4       14.5       14.4       14.4       14.1       14.3       14.8       14.3       14.0       13.9       13.8    
        13.7    
  18   1.000E+30   18.9       19.3       19.7       20.0       20.3       20.5       20.2       20.2       19.5       18.5    
        16.8       15.1       14.8       14.2       14.1       14.2       14.3       13.8       13.5       13.4       13.2    
        13.3    
  19   1.000E+30  1.000E+30   18.3       18.9       19.3       19.6       19.8       20.0       20.2       19.2       18.9    
        17.2       16.3       15.4       14.7       14.5       14.3       13.9       13.4       13.2       13.1       13.0    
        13.2    
  20   1.000E+30  1.000E+30   17.8       18.3       18.7       19.0       19.2       19.4       19.5       19.2       18.6    
        17.7       16.4       16.1       15.3       14.8       14.7       14.2       13.7       13.2       13.1       13.2    
        13.3    
  21   1.000E+30  1.000E+30   17.4       17.8       18.1       18.4       18.6       18.7       18.9       19.0       18.2    
        17.5       16.9       16.2       15.7       15.7       15.3       14.7       14.2       14.0       13.8       13.9    
        14.0    
  22   1.000E+30  1.000E+30  1.000E+30   17.4       17.6       17.8       18.0       18.1       18.2       18.3       17.8    
        17.7       17.0       16.7       16.5       16.5       16.5       15.6       15.0       14.8       15.1       15.6    
        15.3    
  23   1.000E+30  1.000E+30  1.000E+30  1.000E+30   17.2       17.3       17.4       17.4       17.5       17.6       17.6    
        17.3       16.8       16.5       16.7       17.6       17.5       16.6       15.6       15.5       16.4       17.4    
        17.2    
  24   1.000E+30  1.000E+30  1.000E+30  1.000E+30   16.7       16.7       16.7       16.8       16.8       16.9       17.0    
        17.1       16.8       16.3       16.8       17.7       17.9       17.1       16.0       16.0       16.9       18.1    
        17.8    
  25   1.000E+30  1.000E+30   16.5       16.2       16.1       16.0       16.0       16.0       16.1       16.3       16.3    
        16.6       16.6       16.1       16.5       17.0       17.1       16.6       15.9       15.9       16.5       17.1    
        16.9    
  26   1.000E+30  1.000E+30   15.9       15.6       15.4       15.3       15.3       15.5       15.6       15.9       15.9    
        16.1       16.6       16.4       16.2       16.0       16.2       15.9       15.7       15.2       15.4       15.7    
        15.6    
  27    15.3       15.2       14.9       14.7       14.5       14.4       14.8       14.9       15.4       15.5       15.6    
        16.0       16.3       16.1       16.4       16.4       15.5       15.3       15.2       15.1       15.1       14.6    
        14.5    
  28    14.1       14.0       14.1       14.1       14.1       14.6       14.7       15.3       15.5       15.6       15.7    
        15.9       16.1       16.6       16.3       16.2       15.8       15.5       14.8       14.7       14.6       14.6    
        13.8    
  29    13.1       13.1       13.4       13.7       13.9       14.2       14.9       15.1       15.4       15.5       16.1    
        16.3       16.7       16.8       16.3       16.2       15.8       15.7       15.3       14.6       14.5       14.7    
        14.6    
  30    11.8       12.4       13.2       13.7       13.6       14.3       14.8       15.1       15.4       15.9       16.1    
        16.3       16.7       16.7       16.8       16.2       16.2       15.9       15.8       15.7       15.4       15.2    
        14.1    
  31    11.3       12.6       13.6       13.8       14.1       14.5       14.8       15.2       15.7       15.9       16.1    
        16.5       16.6       16.6       16.6       16.5       16.7       15.8       15.8       15.4       15.2       15.0    
        14.2    
  32    12.1       13.8       15.1       14.2       13.9       14.3       15.0       15.3       15.5       15.7       16.1    
        16.4       16.3       16.2       16.3       16.5       16.4       15.9       15.8       15.8       15.4       15.2    
        14.9    
  33    12.0       13.8       14.9       13.8       13.2       13.6       14.6       15.4       15.2       15.2       15.8    
        15.9       15.7       15.7       16.0       16.1       16.1       16.0       15.6       15.6       15.4       15.3    
        14.9    
  34   1.000E+30  1.000E+30  1.000E+30  1.000E+30  1.000E+30  1.000E+30  1.000E+30   14.8       14.4       14.5       14.9    
        14.9       14.6       15.0       15.3       15.6       15.7       15.7       15.4       15.2       15.5       15.3    
        14.9    
  35   1.000E+30  1.000E+30  1.000E+30  1.000E+30  1.000E+30  1.000E+30  1.000E+30  1.000E+30  1.000E+30  1.000E+30  1.000E+30
       1.000E+30  1.000E+30   14.5       14.6       14.8       15.0       14.9       14.5       14.5       15.3       15.2    
        14.7    
  36   1.000E+30  1.000E+30  1.000E+30  1.000E+30  1.000E+30  1.000E+30  1.000E+30  1.000E+30  1.000E+30  1.000E+30  1.000E+30
       1.000E+30  1.000E+30  1.000E+30  1.000E+30  1.000E+30  1.000E+30  1.000E+30  1.000E+30  1.000E+30   15.0       14.8    
        14.2    

                                                             LAYER   2

           1          2          3          4          5          6          7          8          9         10         11
          12         13         14         15         16         17         18         19         20         21         22
          23
 .........................................................................................................................
   1   1.000E+30  1.000E+30  1.000E+30   15.0       15.0       15.0       15.0       15.0       15.0       15.0       15.0    
        15.0       15.0       15.0       15.0       15.0       15.0       15.0       15.0       15.0       15.0       15.0    
        15.0    
   2   1.000E+30  1.000E+30   15.0       15.0       15.0       15.0       15.0       15.0       15.0       15.0       15.0    
        15.0       15.0       15.0       15.0       15.0       15.0       15.0       15.0       15.0       15.0       15.0    
        15.0    
   3   1.000E+30  1.000E+30   15.0       15.0       15.0       15.0       15.0       15.0       15.0       15.0       15.0    
        15.0       15.0       15.0       15.0       15.0       15.0       15.0       15.0       15.0       15.0       15.0    
        15.0    
   4   1.000E+30  1.000E+30   15.0       15.0       15.0       15.0       15.0       15.0       15.0       15.0       15.0    
        15.0       15.0       15.0       15.0       15.0       15.0       15.0       15.0       15.0       15.0       15.0    
        15.0    
   5   1.000E+30  1.000E+30   15.0       15.0       15.0       15.0       15.0       15.0       15.0       15.0       15.0    
        15.0       15.0       15.0       15.0       15.0       15.0       15.0       15.0       15.0       15.0       15.0    
        15.0    
   6   1.000E+30  1.000E+30   15.0       15.0       15.0       15.0       15.0       15.0       15.0       15.0       15.0    
        15.0       15.0       15.0       15.0       15.0       15.0       15.0       15.0       15.0       15.0       15.0    
        15.0    
   7   1.000E+30  1.000E+30   15.0       15.0       15.0       15.0       15.0       15.0       15.0       15.0       15.0    
        15.0       15.0       15.0       15.0       15.0       15.0       15.0       15.0       15.0       15.0       15.0    
        15.0    
   8   1.000E+30  1.000E+30   15.0       15.0       15.0       15.0       15.0       15.0       15.0       15.0       15.0    
        15.0       15.0       15.0       15.0       15.0       15.0       15.0       15.0       15.0       15.0       15.0    
        15.0    
   9   1.000E+30  1.000E+30   15.0       15.0       15.0       15.0       15.0       15.0       15.0       15.0       15.0    
        15.0       15.0       15.0       15.0       15.0       15.0       15.0       15.0       15.0       15.0       15.0    
        15.0    
  10   1.000E+30  1.000E+30   15.0       15.0       15.0       15.0       15.0       15.0       15.0       15.0       15.0    
        15.0       15.0       15.0       15.0       15.0       15.0       15.0       15.0       15.0       15.0       15.0    
        15.0    
  11   1.000E+30  1.000E+30   15.0       15.0       15.0       15.0       15.0       15.0       15.0       15.0       15.0    
        15.0       15.0       15.0       15.0       15.0       15.0       15.0       15.0       15.0       15.0       15.0    
        15.0    
  12   1.000E+30   15.0       15.0       15.0       15.0       15.0       15.0       15.0       15.0       15.0       15.0    
        15.0       15.0       15.0       15.0       15.0       15.0       15.0       15.0       15.0       15.0       15.0    
        15.0    
  13   1.000E+30   15.0       15.0       15.0       15.0       15.0       15.0       15.0       15.0       15.0       15.0    
        15.0       15.0       15.0       15.0       15.0       15.0       15.0       15.0       15.0       15.0       15.0    
        15.0    
  14   1.000E+30   15.0       15.0       15.0       15.0       15.0       15.0       15.0       15.0       15.0       15.0    
        15.0       15.0       15.0       15.0       15.0       15.0       15.0       15.0       15.0       15.0       15.0    
        15.0    
  15   1.000E+30   15.0       15.0       15.0       15.0       15.0       15.0       15.0       15.0       15.0       15.0    
        15.0       15.0       15.0       15.0       15.0       15.0       15.0       15.0       15.0       15.0       15.0    
        15.0    
  16   1.000E+30   15.0       15.0       15.0       15.0       15.0       15.0       15.0       15.0       15.0       15.0    
        15.0       15.0       15.0       15.0       15.0       15.0       15.0       15.0       15.0       15.0       15.0    
        15.0    
  17   1.000E+30   15.0       15.0       15.0       15.0       15.0       15.0       15.0       15.0       15.0       15.0    